data/ENWL/enwl_kron_reduced/network_4/Feeder_1/Lines.txt
! Imported from Lines.txt, with modified linecodes
! ------------------------------------------------------------------------------------------
New Line.LINE0 Bus1=sourcebus.1.2.3 Bus2=1.1.2.3 phases=3 Linecode=LC4 Length=1 Units=m
New Line.LINE1 Bus1=1.1.2.3 Bus2=2.1.2.3 phases=3 Linecode=LC4 Length=0.38048 Units=m
New Line.LINE2 Bus1=1.1.2.3 Bus2=3.1.2.3 phases=3 Linecode=LC4 Length=0.03891 Units=m
New Line.LINE3 Bus1=3.1.2.3 Bus2=4.1.2.3 phases=3 Linecode=LC4 Length=0.063632 Units=m
New Line.LINE4 Bus1=4.1.2.3 Bus2=5.1.2.3 phases=3 Linecode=LC4 Length=0.0714 Units=m
New Line.LINE5 Bus1=5.1.2.3 Bus2=6.1.2.3 phases=3 Linecode=LC4 Length=1.0415 Units=m
New Line.LINE6 Bus1=6.1.2.3 Bus2=7.1.2.3 phases=3 Linecode=LC4 Length=0.074404 Units=m
New Line.LINE7 Bus1=7.1.2.3 Bus2=8.1.2.3 phases=3 Linecode=LC4 Length=0.087596 Units=m
New Line.LINE8 Bus1=8.1.2.3 Bus2=9.1.2.3 phases=3 Linecode=LC4 Length=0.1212 Units=m
New Line.LINE9 Bus1=9.1.2.3 Bus2=10.1.2.3 phases=3 Linecode=LC4 Length=0.109 Units=m
New Line.LINE10 Bus1=10.1.2.3 Bus2=11.1.2.3 phases=3 Linecode=LC4 Length=0.087966 Units=m
New Line.LINE11 Bus1=11.1.2.3 Bus2=12.1.2.3 phases=3 Linecode=LC4 Length=4.008 Units=m
New Line.LINE12 Bus1=12.1.2.3 Bus2=13.1.2.3 phases=3 Linecode=LC4 Length=0.66425 Units=m
New Line.LINE13 Bus1=13.1.2.3 Bus2=14.1.2.3 phases=3 Linecode=LC4 Length=0.070178 Units=m
New Line.LINE14 Bus1=14.1.2.3 Bus2=15.1.2.3 phases=3 Linecode=LC4 Length=0.10153 Units=m
New Line.LINE15 Bus1=15.1.2.3 Bus2=16.1.2.3 phases=3 Linecode=LC4 Length=0.17401 Units=m
New Line.LINE16 Bus1=16.1.2.3 Bus2=17.1.2.3 phases=3 Linecode=LC4 Length=0.21712 Units=m
New Line.LINE17 Bus1=17.1.2.3 Bus2=18.1.2.3 phases=3 Linecode=LC4 Length=0.21875 Units=m
New Line.LINE18 Bus1=18.1.2.3 Bus2=19.1.2.3 phases=3 Linecode=LC4 Length=0.28289 Units=m
New Line.LINE19 Bus1=19.1.2.3 Bus2=20.1.2.3 phases=3 Linecode=LC4 Length=0.23655 Units=m
New Line.LINE20 Bus1=20.1.2.3 Bus2=21.1.2.3 phases=3 Linecode=LC4 Length=0.13097 Units=m
New Line.LINE21 Bus1=21.1.2.3 Bus2=22.1.2.3 phases=3 Linecode=LC4 Length=0.13771 Units=m
New Line.LINE22 Bus1=22.1.2.3 Bus2=23.1.2.3 phases=3 Linecode=LC4 Length=0.080025 Units=m
New Line.LINE23 Bus1=23.1.2.3 Bus2=24.1.2.3 phases=3 Linecode=LC4 Length=0.064777 Units=m
New Line.LINE24 Bus1=24.1.2.3 Bus2=25.1.2.3 phases=3 Linecode=LC4 Length=2.581 Units=m
New Line.LINE25 Bus1=25.1.2.3 Bus2=26.1.2.3 phases=3 Linecode=LC4 Length=4.64 Units=m
New Line.LINE26 Bus1=26.1.2.3 Bus2=27.1.2.3 phases=3 Linecode=LC4 Length=2.9846 Units=m
New Line.LINE27 Bus1=27.1.2.3 Bus2=28.1.2.3 phases=3 Linecode=LC4 Length=6.9934 Units=m
New Line.LINE28 Bus1=28.1.2.3 Bus2=29.1.2.3 phases=3 Linecode=LC4 Length=0.21957 Units=m
New Line.LINE29 Bus1=29.1.2.3 Bus2=30.1.2.3 phases=3 Linecode=LC4 Length=0.1381 Units=m
New Line.LINE30 Bus1=30.1.2.3 Bus2=31.1.2.3 phases=3 Linecode=LC4 Length=0.16263 Units=m
New Line.LINE31 Bus1=31.1.2.3 Bus2=32.1.2.3 phases=3 Linecode=LC4 Length=0.29025 Units=m
New Line.LINE32 Bus1=32.1.2.3 Bus2=33.1.2.3 phases=3 Linecode=LC4 Length=0.26383 Units=m
New Line.LINE33 Bus1=33.1.2.3 Bus2=34.1.2.3 phases=3 Linecode=LC4 Length=0.17129 Units=m
New Line.LINE34 Bus1=34.1.2.3 Bus2=35.1.2.3 phases=3 Linecode=LC4 Length=0.2058 Units=m
New Line.LINE35 Bus1=35.1.2.3 Bus2=36.1.2.3 phases=3 Linecode=LC4 Length=0.22587 Units=m
New Line.LINE36 Bus1=36.1.2.3 Bus2=37.1.2.3 phases=3 Linecode=LC4 Length=0.18102 Units=m
New Line.LINE37 Bus1=37.1.2.3 Bus2=38.1.2.3 phases=3 Linecode=LC4 Length=0.19003 Units=m
New Line.LINE38 Bus1=38.1.2.3 Bus2=39.1.2.3 phases=3 Linecode=LC4 Length=0.67853 Units=m
New Line.LINE39 Bus1=39.1.2.3 Bus2=40.1.2.3 phases=3 Linecode=LC4 Length=5.7183 Units=m
New Line.LINE40 Bus1=40.1.2.3 Bus2=41.1.2.3 phases=3 Linecode=LC4 Length=0.86357 Units=m
New Line.LINE41 Bus1=41.1.2.3 Bus2=42.1.2.3 phases=3 Linecode=LC4 Length=4.9126 Units=m
New Line.LINE42 Bus1=42.1.2.3 Bus2=43.1.2.3 phases=3 Linecode=LC4 Length=0.33153 Units=m
New Line.LINE43 Bus1=43.1.2.3 Bus2=44.1.2.3 phases=3 Linecode=LC5 Length=1.0004 Units=m
New Line.LINE44 Bus1=44.1.2.3 Bus2=45.1.2.3 phases=3 Linecode=LC4 Length=0.55788 Units=m
New Line.LINE45 Bus1=45.1.2.3 Bus2=46.1.2.3 phases=3 Linecode=LC4 Length=1.9092 Units=m
New Line.LINE46 Bus1=46.1.2.3 Bus2=47.1.2.3 phases=3 Linecode=LC4 Length=5.0887 Units=m
New Line.LINE47 Bus1=47.1.2.3 Bus2=48.1.2.3 phases=3 Linecode=LC4 Length=3.6682 Units=m
New Line.LINE48 Bus1=48.1.2.3 Bus2=49.1.2.3 phases=3 Linecode=LC4 Length=0.81361 Units=m
New Line.LINE49 Bus1=49.1.2.3 Bus2=50.1.2.3 phases=3 Linecode=LC4 Length=0.13038 Units=m
New Line.LINE50 Bus1=50.1.2.3 Bus2=51.1.2.3 phases=3 Linecode=LC4 Length=0.10512 Units=m
New Line.LINE51 Bus1=51.1.2.3 Bus2=52.1.2.3 phases=3 Linecode=LC4 Length=0.14957 Units=m
New Line.LINE52 Bus1=51.1.2.3 Bus2=53.1.2.3 phases=3 Linecode=LC1 Length=0.033015 Units=m
New Line.LINE53 Bus1=52.1.2.3 Bus2=54.1.2.3 phases=3 Linecode=LC4 Length=0.22594 Units=m
New Line.LINE54 Bus1=53.1.2.3 Bus2=55.1.2.3 phases=3 Linecode=LC1 Length=4.3041 Units=m
New Line.LINE55 Bus1=54.1.2.3 Bus2=56.1.2.3 phases=3 Linecode=LC4 Length=0.26187 Units=m
New Line.LINE56 Bus1=55.1.2.3 Bus2=57.1.2.3 phases=3 Linecode=LC1 Length=0.087784 Units=m
New Line.LINE57 Bus1=56.1.2.3 Bus2=58.1.2.3 phases=3 Linecode=LC4 Length=0.11215 Units=m
New Line.LINE58 Bus1=57.1.2.3 Bus2=59.1.2.3 phases=3 Linecode=LC1 Length=0.13341 Units=m
New Line.LINE59 Bus1=58.1.2.3 Bus2=60.1.2.3 phases=3 Linecode=LC4 Length=0.79351 Units=m
New Line.LINE60 Bus1=59.1.2.3 Bus2=61.1.2.3 phases=3 Linecode=LC1 Length=0.13039 Units=m
New Line.LINE61 Bus1=60.1.2.3 Bus2=62.1.2.3 phases=3 Linecode=LC4 Length=0.11113 Units=m
New Line.LINE62 Bus1=61.1.2.3 Bus2=63.1.2.3 phases=3 Linecode=LC1 Length=0.13231 Units=m
New Line.LINE63 Bus1=62.1.2.3 Bus2=64.1.2.3 phases=3 Linecode=LC4 Length=0.1873 Units=m
New Line.LINE64 Bus1=63.1.2.3 Bus2=65.1.2.3 phases=3 Linecode=LC1 Length=0.13571 Units=m
New Line.LINE65 Bus1=64.1.2.3 Bus2=66.1.2.3 phases=3 Linecode=LC4 Length=0.21194 Units=m
New Line.LINE66 Bus1=65.1.2.3 Bus2=67.1.2.3 phases=3 Linecode=LC1 Length=0.36324 Units=m
New Line.LINE67 Bus1=66.1.2.3 Bus2=68.1.2.3 phases=3 Linecode=LC4 Length=0.22474 Units=m
New Line.LINE68 Bus1=67.1.2.3 Bus2=69.1.2.3 phases=3 Linecode=LC1 Length=0.56623 Units=m
New Line.LINE69 Bus1=68.1.2.3 Bus2=70.1.2.3 phases=3 Linecode=LC4 Length=0.27083 Units=m
New Line.LINE70 Bus1=69.1.2.3 Bus2=71.1.2.3 phases=3 Linecode=LC1 Length=3.3893 Units=m
New Line.LINE71 Bus1=70.1.2.3 Bus2=72.1.2.3 phases=3 Linecode=LC4 Length=0.2122 Units=m
New Line.LINE72 Bus1=72.1.2.3 Bus2=73.1.2.3 phases=3 Linecode=LC4 Length=3.9976 Units=m
New Line.LINE73 Bus1=73.1.2.3 Bus2=74.1.2.3 phases=3 Linecode=LC4 Length=7.8795 Units=m
New Line.LINE74 Bus1=74.1.2.3 Bus2=75.1.2.3 phases=3 Linecode=LC1 Length=6.5646 Units=m
New Line.LINE75 Bus1=74.1.2.3 Bus2=76.1.2.3 phases=3 Linecode=LC4 Length=1.7967 Units=m
New Line.LINE76 Bus1=75.1.2.3 Bus2=77.1.2.3 phases=3 Linecode=LC1 Length=0.11442 Units=m
New Line.LINE77 Bus1=76.1.2.3 Bus2=78.1.2.3 phases=3 Linecode=LC1 Length=6.2138 Units=m
New Line.LINE78 Bus1=76.1.2.3 Bus2=79.1.2.3 phases=3 Linecode=LC4 Length=2.2667 Units=m
New Line.LINE79 Bus1=77.1.2.3 Bus2=80.1.2.3 phases=3 Linecode=LC1 Length=0.11442 Units=m
New Line.LINE80 Bus1=78.1.2.3 Bus2=81.1.2.3 phases=3 Linecode=LC1 Length=0.086452 Units=m
New Line.LINE81 Bus1=79.1.2.3 Bus2=82.1.2.3 phases=3 Linecode=LC4 Length=10.7653 Units=m
New Line.LINE82 Bus1=80.1.2.3 Bus2=83.1.2.3 phases=3 Linecode=LC1 Length=0.11434 Units=m
New Line.LINE83 Bus1=81.1.2.3 Bus2=84.1.2.3 phases=3 Linecode=LC1 Length=0.097745 Units=m
New Line.LINE84 Bus1=82.1.2.3 Bus2=85.1.2.3 phases=3 Linecode=LC4 Length=0.61009 Units=m
New Line.LINE85 Bus1=83.1.2.3 Bus2=86.1.2.3 phases=3 Linecode=LC1 Length=0.12702 Units=m
New Line.LINE86 Bus1=84.1.2.3 Bus2=87.1.2.3 phases=3 Linecode=LC1 Length=0.091389 Units=m
New Line.LINE87 Bus1=85.1.2.3 Bus2=88.1.2.3 phases=3 Linecode=LC1 Length=6.4297 Units=m
New Line.LINE88 Bus1=85.1.2.3 Bus2=89.1.2.3 phases=3 Linecode=LC4 Length=8.4845 Units=m
New Line.LINE89 Bus1=86.1.2.3 Bus2=90.1.2.3 phases=3 Linecode=LC1 Length=0.097837 Units=m
New Line.LINE90 Bus1=87.1.2.3 Bus2=91.1.2.3 phases=3 Linecode=LC1 Length=0.086585 Units=m
New Line.LINE91 Bus1=88.1.2.3 Bus2=92.1.2.3 phases=3 Linecode=LC1 Length=0.12971 Units=m
New Line.LINE92 Bus1=89.1.2.3 Bus2=93.1.2.3 phases=3 Linecode=LC4 Length=0.6678 Units=m
New Line.LINE93 Bus1=89.1.2.3 Bus2=94.1.2.3 phases=3 Linecode=LC8 Length=9.0871 Units=m
New Line.LINE94 Bus1=90.1.2.3 Bus2=95.1.2.3 phases=3 Linecode=LC1 Length=0.76977 Units=m
New Line.LINE95 Bus1=91.1.2.3 Bus2=96.1.2.3 phases=3 Linecode=LC1 Length=0.11908 Units=m
New Line.LINE96 Bus1=92.1.2.3 Bus2=97.1.2.3 phases=3 Linecode=LC1 Length=0.13267 Units=m
New Line.LINE97 Bus1=93.1.2.3 Bus2=98.1.2.3 phases=3 Linecode=LC4 Length=0.068007 Units=m
New Line.LINE98 Bus1=94.1.2.3 Bus2=99.1.2.3 phases=3 Linecode=LC8 Length=0.59995 Units=m
New Line.LINE99 Bus1=95.1.2.3 Bus2=100.1.2.3 phases=3 Linecode=LC1 Length=5.7588 Units=m
New Line.LINE100 Bus1=96.1.2.3 Bus2=101.1.2.3 phases=3 Linecode=LC1 Length=0.13065 Units=m
New Line.LINE101 Bus1=97.1.2.3 Bus2=102.1.2.3 phases=3 Linecode=LC1 Length=0.12254 Units=m
New Line.LINE102 Bus1=98.1.2.3 Bus2=103.1.2.3 phases=3 Linecode=LC4 Length=0.068469 Units=m
New Line.LINE103 Bus1=99.1.2.3 Bus2=104.1.2.3 phases=3 Linecode=LC8 Length=0.5301 Units=m
New Line.LINE104 Bus1=101.1.2.3 Bus2=105.1.2.3 phases=3 Linecode=LC1 Length=0.37119 Units=m
New Line.LINE105 Bus1=102.1.2.3 Bus2=106.1.2.3 phases=3 Linecode=LC1 Length=0.094202 Units=m
New Line.LINE106 Bus1=103.1.2.3 Bus2=107.1.2.3 phases=3 Linecode=LC4 Length=0.122 Units=m
New Line.LINE107 Bus1=104.1.2.3 Bus2=108.1.2.3 phases=3 Linecode=LC8 Length=5.2995 Units=m
New Line.LINE108 Bus1=105.1.2.3 Bus2=109.1.2.3 phases=3 Linecode=LC1 Length=0.62688 Units=m
New Line.LINE109 Bus1=106.1.2.3 Bus2=110.1.2.3 phases=3 Linecode=LC1 Length=0.64724 Units=m
New Line.LINE110 Bus1=107.1.2.3 Bus2=111.1.2.3 phases=3 Linecode=LC4 Length=0.127 Units=m
New Line.LINE111 Bus1=108.1.2.3 Bus2=112.1.2.3 phases=3 Linecode=LC8 Length=0.26461 Units=m
New Line.LINE112 Bus1=109.1.2.3 Bus2=113.1.2.3 phases=3 Linecode=LC1 Length=3.0717 Units=m
New Line.LINE113 Bus1=110.1.2.3 Bus2=114.1.2.3 phases=3 Linecode=LC1 Length=6.6642 Units=m
New Line.LINE114 Bus1=111.1.2.3 Bus2=115.1.2.3 phases=3 Linecode=LC4 Length=0.062801 Units=m
New Line.LINE115 Bus1=112.1.2.3 Bus2=116.1.2.3 phases=3 Linecode=LC8 Length=0.18682 Units=m
New Line.LINE116 Bus1=115.1.2.3 Bus2=117.1.2.3 phases=3 Linecode=LC4 Length=0.054708 Units=m
New Line.LINE117 Bus1=116.1.2.3 Bus2=118.1.2.3 phases=3 Linecode=LC8 Length=0.39563 Units=m
New Line.LINE118 Bus1=117.1.2.3 Bus2=119.1.2.3 phases=3 Linecode=LC4 Length=0.11183 Units=m
New Line.LINE119 Bus1=118.1.2.3 Bus2=120.1.2.3 phases=3 Linecode=LC8 Length=0.59797 Units=m
New Line.LINE120 Bus1=119.1.2.3 Bus2=121.1.2.3 phases=3 Linecode=LC4 Length=0.11921 Units=m
New Line.LINE121 Bus1=120.1.2.3 Bus2=122.1.2.3 phases=3 Linecode=LC8 Length=0.26658 Units=m
New Line.LINE122 Bus1=121.1.2.3 Bus2=123.1.2.3 phases=3 Linecode=LC4 Length=0.18006 Units=m
New Line.LINE123 Bus1=122.1.2.3 Bus2=124.1.2.3 phases=3 Linecode=LC8 Length=0.18956 Units=m
New Line.LINE124 Bus1=123.1.2.3 Bus2=125.1.2.3 phases=3 Linecode=LC4 Length=0.24666 Units=m
New Line.LINE125 Bus1=124.1.2.3 Bus2=126.1.2.3 phases=3 Linecode=LC8 Length=0.141 Units=m
New Line.LINE126 Bus1=125.1.2.3 Bus2=127.1.2.3 phases=3 Linecode=LC4 Length=0.79335 Units=m
New Line.LINE127 Bus1=126.1.2.3 Bus2=128.1.2.3 phases=3 Linecode=LC8 Length=0.1408 Units=m
New Line.LINE128 Bus1=127.1.2.3 Bus2=129.1.2.3 phases=3 Linecode=LC4 Length=11.5078 Units=m
New Line.LINE129 Bus1=128.1.2.3 Bus2=130.1.2.3 phases=3 Linecode=LC8 Length=0.34801 Units=m
New Line.LINE130 Bus1=129.1.2.3 Bus2=131.1.2.3 phases=3 Linecode=LC1 Length=4.8882 Units=m
New Line.LINE131 Bus1=129.1.2.3 Bus2=132.1.2.3 phases=3 Linecode=LC4 Length=12.8115 Units=m
New Line.LINE132 Bus1=130.1.2.3 Bus2=133.1.2.3 phases=3 Linecode=LC4 Length=1.7838 Units=m
New Line.LINE133 Bus1=130.1.2.3 Bus2=134.1.2.3 phases=3 Linecode=LC4 Length=8.2739 Units=m
New Line.LINE134 Bus1=131.1.2.3 Bus2=135.1.2.3 phases=3 Linecode=LC1 Length=0.064351 Units=m
New Line.LINE135 Bus1=132.1.2.3 Bus2=136.1.2.3 phases=3 Linecode=LC4 Length=0.29261 Units=m
New Line.LINE136 Bus1=132.1.2.3 Bus2=137.1.2.3 phases=3 Linecode=LC1 Length=0.14562 Units=m
New Line.LINE137 Bus1=133.1.2.3 Bus2=138.1.2.3 phases=3 Linecode=LC4 Length=0.47738 Units=m
New Line.LINE138 Bus1=133.1.2.3 Bus2=139.1.2.3 phases=3 Linecode=LC1 Length=2.4367 Units=m
New Line.LINE139 Bus1=134.1.2.3 Bus2=140.1.2.3 phases=3 Linecode=LC4 Length=3.3065 Units=m
New Line.LINE140 Bus1=135.1.2.3 Bus2=141.1.2.3 phases=3 Linecode=LC1 Length=0.072945 Units=m
New Line.LINE141 Bus1=136.1.2.3 Bus2=142.1.2.3 phases=3 Linecode=LC4 Length=0.052202 Units=m
New Line.LINE142 Bus1=137.1.2.3 Bus2=143.1.2.3 phases=3 Linecode=LC1 Length=4.4779 Units=m
New Line.LINE143 Bus1=138.1.2.3 Bus2=144.1.2.3 phases=3 Linecode=LC4 Length=1.4558 Units=m
New Line.LINE144 Bus1=139.1.2.3 Bus2=145.1.2.3 phases=3 Linecode=LC1 Length=0.37348 Units=m
New Line.LINE145 Bus1=140.1.2.3 Bus2=146.1.2.3 phases=3 Linecode=LC1 Length=2.1295 Units=m
New Line.LINE146 Bus1=140.1.2.3 Bus2=147.1.2.3 phases=3 Linecode=LC4 Length=1.3166 Units=m
New Line.LINE147 Bus1=141.1.2.3 Bus2=148.1.2.3 phases=3 Linecode=LC1 Length=0.064133 Units=m
New Line.LINE148 Bus1=142.1.2.3 Bus2=149.1.2.3 phases=3 Linecode=LC4 Length=0.092542 Units=m
New Line.LINE149 Bus1=143.1.2.3 Bus2=150.1.2.3 phases=3 Linecode=LC1 Length=0.10826 Units=m
New Line.LINE150 Bus1=144.1.2.3 Bus2=151.1.2.3 phases=3 Linecode=LC1 Length=4.2252 Units=m
New Line.LINE151 Bus1=144.1.2.3 Bus2=152.1.2.3 phases=3 Linecode=LC4 Length=13.6305 Units=m
New Line.LINE152 Bus1=145.1.2.3 Bus2=153.1.2.3 phases=3 Linecode=LC1 Length=0.19125 Units=m
New Line.LINE153 Bus1=146.1.2.3 Bus2=154.1.2.3 phases=3 Linecode=LC1 Length=0.2575 Units=m
New Line.LINE154 Bus1=147.1.2.3 Bus2=155.1.2.3 phases=3 Linecode=LC4 Length=0.18866 Units=m
New Line.LINE155 Bus1=147.1.2.3 Bus2=156.1.2.3 phases=3 Linecode=LC4 Length=0.099974 Units=m
New Line.LINE156 Bus1=147.1.2.3 Bus2=157.1.2.3 phases=3 Linecode=LC4 Length=0.63941 Units=m
New Line.LINE157 Bus1=148.1.2.3 Bus2=158.1.2.3 phases=3 Linecode=LC1 Length=0.093022 Units=m
New Line.LINE158 Bus1=149.1.2.3 Bus2=159.1.2.3 phases=3 Linecode=LC4 Length=0.13424 Units=m
New Line.LINE159 Bus1=150.1.2.3 Bus2=160.1.2.3 phases=3 Linecode=LC1 Length=0.11616 Units=m
New Line.LINE160 Bus1=151.1.2.3 Bus2=161.1.2.3 phases=3 Linecode=LC1 Length=0.31262 Units=m
New Line.LINE161 Bus1=152.1.2.3 Bus2=162.1.2.3 phases=3 Linecode=LC1 Length=2.0245 Units=m
New Line.LINE162 Bus1=152.1.2.3 Bus2=163.1.2.3 phases=3 Linecode=LC4 Length=1.8535 Units=m
New Line.LINE163 Bus1=153.1.2.3 Bus2=164.1.2.3 phases=3 Linecode=LC1 Length=0.16609 Units=m
New Line.LINE164 Bus1=154.1.2.3 Bus2=165.1.2.3 phases=3 Linecode=LC1 Length=0.242 Units=m
New Line.LINE165 Bus1=155.1.2.3 Bus2=166.1.2.3 phases=3 Linecode=LC4 Length=0.19176 Units=m
New Line.LINE166 Bus1=156.1.2.3 Bus2=167.1.2.3 phases=3 Linecode=LC4 Length=0.09062 Units=m
New Line.LINE167 Bus1=157.1.2.3 Bus2=168.1.2.3 phases=3 Linecode=LC1 Length=0.88271 Units=m
New Line.LINE168 Bus1=157.1.2.3 Bus2=169.1.2.3 phases=3 Linecode=LC4 Length=0.90922 Units=m
New Line.LINE169 Bus1=158.1.2.3 Bus2=170.1.2.3 phases=3 Linecode=LC1 Length=0.099639 Units=m
New Line.LINE170 Bus1=159.1.2.3 Bus2=171.1.2.3 phases=3 Linecode=LC4 Length=0.11942 Units=m
New Line.LINE171 Bus1=160.1.2.3 Bus2=172.1.2.3 phases=3 Linecode=LC1 Length=0.1186 Units=m
New Line.LINE172 Bus1=161.1.2.3 Bus2=173.1.2.3 phases=3 Linecode=LC1 Length=0.23759 Units=m
New Line.LINE173 Bus1=162.1.2.3 Bus2=174.1.2.3 phases=3 Linecode=LC1 Length=0.20663 Units=m
New Line.LINE174 Bus1=163.1.2.3 Bus2=175.1.2.3 phases=3 Linecode=LC1 Length=1.7936 Units=m
New Line.LINE175 Bus1=163.1.2.3 Bus2=176.1.2.3 phases=3 Linecode=LC4 Length=9.3586 Units=m
New Line.LINE176 Bus1=164.1.2.3 Bus2=177.1.2.3 phases=3 Linecode=LC1 Length=0.2593 Units=m
New Line.LINE177 Bus1=165.1.2.3 Bus2=178.1.2.3 phases=3 Linecode=LC1 Length=0.19922 Units=m
New Line.LINE178 Bus1=166.1.2.3 Bus2=179.1.2.3 phases=3 Linecode=LC4 Length=0.16629 Units=m
New Line.LINE179 Bus1=167.1.2.3 Bus2=180.1.2.3 phases=3 Linecode=LC4 Length=0.14029 Units=m
New Line.LINE180 Bus1=168.1.2.3 Bus2=181.1.2.3 phases=3 Linecode=LC1 Length=0.53377 Units=m
New Line.LINE181 Bus1=169.1.2.3 Bus2=182.1.2.3 phases=3 Linecode=LC1 Length=0.71074 Units=m
New Line.LINE182 Bus1=169.1.2.3 Bus2=183.1.2.3 phases=3 Linecode=LC4 Length=0.68719 Units=m
New Line.LINE183 Bus1=170.1.2.3 Bus2=184.1.2.3 phases=3 Linecode=LC1 Length=0.057697 Units=m
New Line.LINE184 Bus1=171.1.2.3 Bus2=185.1.2.3 phases=3 Linecode=LC4 Length=0.057079 Units=m
New Line.LINE185 Bus1=172.1.2.3 Bus2=186.1.2.3 phases=3 Linecode=LC1 Length=0.089067 Units=m
New Line.LINE186 Bus1=173.1.2.3 Bus2=187.1.2.3 phases=3 Linecode=LC1 Length=0.18173 Units=m
New Line.LINE187 Bus1=174.1.2.3 Bus2=188.1.2.3 phases=3 Linecode=LC1 Length=0.14993 Units=m
New Line.LINE188 Bus1=175.1.2.3 Bus2=189.1.2.3 phases=3 Linecode=LC1 Length=0.15435 Units=m
New Line.LINE189 Bus1=176.1.2.3 Bus2=190.1.2.3 phases=3 Linecode=LC4 Length=0.89869 Units=m
New Line.LINE190 Bus1=177.1.2.3 Bus2=191.1.2.3 phases=3 Linecode=LC1 Length=0.46641 Units=m
New Line.LINE191 Bus1=178.1.2.3 Bus2=192.1.2.3 phases=3 Linecode=LC1 Length=0.098387 Units=m
New Line.LINE192 Bus1=179.1.2.3 Bus2=193.1.2.3 phases=3 Linecode=LC4 Length=0.11491 Units=m
New Line.LINE193 Bus1=180.1.2.3 Bus2=194.1.2.3 phases=3 Linecode=LC4 Length=0.16259 Units=m
New Line.LINE194 Bus1=181.1.2.3 Bus2=195.1.2.3 phases=3 Linecode=LC1 Length=0.46732 Units=m
New Line.LINE195 Bus1=182.1.2.3 Bus2=196.1.2.3 phases=3 Linecode=LC1 Length=0.21741 Units=m
New Line.LINE196 Bus1=184.1.2.3 Bus2=197.1.2.3 phases=3 Linecode=LC1 Length=0.32174 Units=m
New Line.LINE197 Bus1=185.1.2.3 Bus2=198.1.2.3 phases=3 Linecode=LC4 Length=0.47023 Units=m
New Line.LINE198 Bus1=186.1.2.3 Bus2=199.1.2.3 phases=3 Linecode=LC1 Length=0.13396 Units=m
New Line.LINE199 Bus1=187.1.2.3 Bus2=200.1.2.3 phases=3 Linecode=LC1 Length=0.46068 Units=m
New Line.LINE200 Bus1=188.1.2.3 Bus2=201.1.2.3 phases=3 Linecode=LC1 Length=0.18788 Units=m
New Line.LINE201 Bus1=189.1.2.3 Bus2=202.1.2.3 phases=3 Linecode=LC1 Length=0.13875 Units=m
New Line.LINE202 Bus1=190.1.2.3 Bus2=203.1.2.3 phases=3 Linecode=LC4 Length=1.0321 Units=m
New Line.LINE203 Bus1=190.1.2.3 Bus2=204.1.2.3 phases=3 Linecode=LC1 Length=1.939 Units=m
New Line.LINE204 Bus1=191.1.2.3 Bus2=205.1.2.3 phases=3 Linecode=LC1 Length=6.0033 Units=m
New Line.LINE205 Bus1=192.1.2.3 Bus2=206.1.2.3 phases=3 Linecode=LC1 Length=0.14758 Units=m
New Line.LINE206 Bus1=193.1.2.3 Bus2=207.1.2.3 phases=3 Linecode=LC4 Length=0.11662 Units=m
New Line.LINE207 Bus1=194.1.2.3 Bus2=208.1.2.3 phases=3 Linecode=LC4 Length=0.16037 Units=m
New Line.LINE208 Bus1=195.1.2.3 Bus2=209.1.2.3 phases=3 Linecode=LC1 Length=0.59404 Units=m
New Line.LINE209 Bus1=196.1.2.3 Bus2=210.1.2.3 phases=3 Linecode=LC1 Length=0.19747 Units=m
New Line.LINE210 Bus1=197.1.2.3 Bus2=211.1.2.3 phases=3 Linecode=LC1 Length=6.982 Units=m
New Line.LINE211 Bus1=198.1.2.3 Bus2=212.1.2.3 phases=3 Linecode=LC4 Length=0.29025 Units=m
New Line.LINE212 Bus1=199.1.2.3 Bus2=213.1.2.3 phases=3 Linecode=LC1 Length=0.1187 Units=m
New Line.LINE213 Bus1=200.1.2.3 Bus2=214.1.2.3 phases=3 Linecode=LC1 Length=6.0485 Units=m
New Line.LINE214 Bus1=201.1.2.3 Bus2=215.1.2.3 phases=3 Linecode=LC1 Length=0.15318 Units=m
New Line.LINE215 Bus1=202.1.2.3 Bus2=216.1.2.3 phases=3 Linecode=LC1 Length=0.09434 Units=m
New Line.LINE216 Bus1=203.1.2.3 Bus2=217.1.2.3 phases=3 Linecode=LC4 Length=1.2177 Units=m
New Line.LINE217 Bus1=203.1.2.3 Bus2=218.1.2.3 phases=3 Linecode=LC1 Length=0.782 Units=m
New Line.LINE218 Bus1=204.1.2.3 Bus2=219.1.2.3 phases=3 Linecode=LC1 Length=7.0375 Units=m
New Line.LINE219 Bus1=206.1.2.3 Bus2=220.1.2.3 phases=3 Linecode=LC1 Length=0.23797 Units=m
New Line.LINE220 Bus1=207.1.2.3 Bus2=221.1.2.3 phases=3 Linecode=LC4 Length=0.16759 Units=m
New Line.LINE221 Bus1=208.1.2.3 Bus2=222.1.2.3 phases=3 Linecode=LC4 Length=0.082037 Units=m
New Line.LINE222 Bus1=209.1.2.3 Bus2=223.1.2.3 phases=3 Linecode=LC1 Length=0.40871 Units=m
New Line.LINE223 Bus1=210.1.2.3 Bus2=224.1.2.3 phases=3 Linecode=LC1 Length=0.22104 Units=m
New Line.LINE224 Bus1=212.1.2.3 Bus2=225.1.2.3 phases=3 Linecode=LC4 Length=0.11204 Units=m
New Line.LINE225 Bus1=213.1.2.3 Bus2=226.1.2.3 phases=3 Linecode=LC1 Length=0.37541 Units=m
New Line.LINE226 Bus1=215.1.2.3 Bus2=227.1.2.3 phases=3 Linecode=LC1 Length=0.18405 Units=m
New Line.LINE227 Bus1=216.1.2.3 Bus2=228.1.2.3 phases=3 Linecode=LC1 Length=0.26012 Units=m
New Line.LINE228 Bus1=217.1.2.3 Bus2=229.1.2.3 phases=3 Linecode=LC4 Length=0.95548 Units=m
New Line.LINE229 Bus1=217.1.2.3 Bus2=230.1.2.3 phases=3 Linecode=LC1 Length=0.78514 Units=m
New Line.LINE230 Bus1=218.1.2.3 Bus2=231.1.2.3 phases=3 Linecode=LC1 Length=0.56765 Units=m
New Line.LINE231 Bus1=220.1.2.3 Bus2=232.1.2.3 phases=3 Linecode=LC1 Length=0.16016 Units=m
New Line.LINE232 Bus1=221.1.2.3 Bus2=233.1.2.3 phases=3 Linecode=LC4 Length=1.2923 Units=m
New Line.LINE233 Bus1=222.1.2.3 Bus2=234.1.2.3 phases=3 Linecode=LC4 Length=0.22707 Units=m
New Line.LINE234 Bus1=223.1.2.3 Bus2=235.1.2.3 phases=3 Linecode=LC1 Length=0.1814 Units=m
New Line.LINE235 Bus1=224.1.2.3 Bus2=236.1.2.3 phases=3 Linecode=LC1 Length=0.22998 Units=m
New Line.LINE236 Bus1=225.1.2.3 Bus2=237.1.2.3 phases=3 Linecode=LC4 Length=0.10002 Units=m
New Line.LINE237 Bus1=226.1.2.3 Bus2=238.1.2.3 phases=3 Linecode=LC1 Length=6.266 Units=m
New Line.LINE238 Bus1=227.1.2.3 Bus2=239.1.2.3 phases=3 Linecode=LC1 Length=0.1679 Units=m
New Line.LINE239 Bus1=228.1.2.3 Bus2=240.1.2.3 phases=3 Linecode=LC1 Length=0.12619 Units=m
New Line.LINE240 Bus1=230.1.2.3 Bus2=241.1.2.3 phases=3 Linecode=LC1 Length=0.62657 Units=m
New Line.LINE241 Bus1=231.1.2.3 Bus2=242.1.2.3 phases=3 Linecode=LC1 Length=0.45856 Units=m
New Line.LINE242 Bus1=232.1.2.3 Bus2=243.1.2.3 phases=3 Linecode=LC1 Length=0.22969 Units=m
New Line.LINE243 Bus1=234.1.2.3 Bus2=244.1.2.3 phases=3 Linecode=LC4 Length=0.089454 Units=m
New Line.LINE244 Bus1=235.1.2.3 Bus2=245.1.2.3 phases=3 Linecode=LC1 Length=0.22362 Units=m
New Line.LINE245 Bus1=236.1.2.3 Bus2=246.1.2.3 phases=3 Linecode=LC1 Length=11.8209 Units=m
New Line.LINE246 Bus1=237.1.2.3 Bus2=247.1.2.3 phases=3 Linecode=LC4 Length=0.10645 Units=m
New Line.LINE247 Bus1=239.1.2.3 Bus2=248.1.2.3 phases=3 Linecode=LC1 Length=0.12827 Units=m
New Line.LINE248 Bus1=240.1.2.3 Bus2=249.1.2.3 phases=3 Linecode=LC1 Length=0.1294 Units=m
New Line.LINE249 Bus1=241.1.2.3 Bus2=250.1.2.3 phases=3 Linecode=LC1 Length=0.48886 Units=m
New Line.LINE250 Bus1=242.1.2.3 Bus2=251.1.2.3 phases=3 Linecode=LC1 Length=0.51858 Units=m
New Line.LINE251 Bus1=243.1.2.3 Bus2=252.1.2.3 phases=3 Linecode=LC1 Length=6.807 Units=m
New Line.LINE252 Bus1=244.1.2.3 Bus2=253.1.2.3 phases=3 Linecode=LC4 Length=0.15881 Units=m
New Line.LINE253 Bus1=245.1.2.3 Bus2=254.1.2.3 phases=3 Linecode=LC1 Length=0.181 Units=m
New Line.LINE254 Bus1=246.1.2.3 Bus2=255.1.2.3 phases=3 Linecode=LC1 Length=0.28469 Units=m
New Line.LINE255 Bus1=247.1.2.3 Bus2=256.1.2.3 phases=3 Linecode=LC4 Length=0.094303 Units=m
New Line.LINE256 Bus1=248.1.2.3 Bus2=257.1.2.3 phases=3 Linecode=LC1 Length=0.133 Units=m
New Line.LINE257 Bus1=249.1.2.3 Bus2=258.1.2.3 phases=3 Linecode=LC1 Length=0.08186 Units=m
New Line.LINE258 Bus1=250.1.2.3 Bus2=259.1.2.3 phases=3 Linecode=LC1 Length=13.3965 Units=m
New Line.LINE259 Bus1=251.1.2.3 Bus2=260.1.2.3 phases=3 Linecode=LC1 Length=1.3493 Units=m
New Line.LINE260 Bus1=254.1.2.3 Bus2=261.1.2.3 phases=3 Linecode=LC1 Length=0.14611 Units=m
New Line.LINE261 Bus1=255.1.2.3 Bus2=262.1.2.3 phases=3 Linecode=LC1 Length=0.39845 Units=m
New Line.LINE262 Bus1=256.1.2.3 Bus2=263.1.2.3 phases=3 Linecode=LC4 Length=0.16055 Units=m
New Line.LINE263 Bus1=257.1.2.3 Bus2=264.1.2.3 phases=3 Linecode=LC1 Length=0.18417 Units=m
New Line.LINE264 Bus1=258.1.2.3 Bus2=265.1.2.3 phases=3 Linecode=LC1 Length=0.09981 Units=m
New Line.LINE265 Bus1=259.1.2.3 Bus2=266.1.2.3 phases=3 Linecode=LC1 Length=0.64806 Units=m
New Line.LINE266 Bus1=260.1.2.3 Bus2=267.1.2.3 phases=3 Linecode=LC1 Length=0.32644 Units=m
New Line.LINE267 Bus1=261.1.2.3 Bus2=268.1.2.3 phases=3 Linecode=LC1 Length=0.16399 Units=m
New Line.LINE268 Bus1=262.1.2.3 Bus2=269.1.2.3 phases=3 Linecode=LC1 Length=2.1545 Units=m
New Line.LINE269 Bus1=263.1.2.3 Bus2=270.1.2.3 phases=3 Linecode=LC4 Length=0.12791 Units=m
New Line.LINE270 Bus1=264.1.2.3 Bus2=271.1.2.3 phases=3 Linecode=LC1 Length=0.15689 Units=m
New Line.LINE271 Bus1=265.1.2.3 Bus2=272.1.2.3 phases=3 Linecode=LC1 Length=0.11477 Units=m
New Line.LINE272 Bus1=266.1.2.3 Bus2=273.1.2.3 phases=3 Linecode=LC1 Length=0.42352 Units=m
New Line.LINE273 Bus1=267.1.2.3 Bus2=274.1.2.3 phases=3 Linecode=LC1 Length=0.30907 Units=m
New Line.LINE274 Bus1=268.1.2.3 Bus2=275.1.2.3 phases=3 Linecode=LC1 Length=0.1494 Units=m
New Line.LINE275 Bus1=269.1.2.3 Bus2=276.1.2.3 phases=3 Linecode=LC1 Length=0.37927 Units=m
New Line.LINE276 Bus1=270.1.2.3 Bus2=277.1.2.3 phases=3 Linecode=LC4 Length=0.15076 Units=m
New Line.LINE277 Bus1=271.1.2.3 Bus2=278.1.2.3 phases=3 Linecode=LC1 Length=0.4408 Units=m
New Line.LINE278 Bus1=272.1.2.3 Bus2=279.1.2.3 phases=3 Linecode=LC1 Length=0.18257 Units=m
New Line.LINE279 Bus1=273.1.2.3 Bus2=280.1.2.3 phases=3 Linecode=LC1 Length=0.45384 Units=m
New Line.LINE280 Bus1=274.1.2.3 Bus2=281.1.2.3 phases=3 Linecode=LC1 Length=3.0978 Units=m
New Line.LINE281 Bus1=275.1.2.3 Bus2=282.1.2.3 phases=3 Linecode=LC1 Length=0.11526 Units=m
New Line.LINE282 Bus1=276.1.2.3 Bus2=283.1.2.3 phases=3 Linecode=LC1 Length=0.50806 Units=m
New Line.LINE283 Bus1=277.1.2.3 Bus2=284.1.2.3 phases=3 Linecode=LC4 Length=0.15881 Units=m
New Line.LINE284 Bus1=278.1.2.3 Bus2=285.1.2.3 phases=3 Linecode=LC1 Length=6.1318 Units=m
New Line.LINE285 Bus1=279.1.2.3 Bus2=286.1.2.3 phases=3 Linecode=LC1 Length=0.27359 Units=m
New Line.LINE286 Bus1=280.1.2.3 Bus2=287.1.2.3 phases=3 Linecode=LC1 Length=3.7231 Units=m
New Line.LINE287 Bus1=281.1.2.3 Bus2=288.1.2.3 phases=3 Linecode=LC1 Length=0.2864 Units=m
New Line.LINE288 Bus1=282.1.2.3 Bus2=289.1.2.3 phases=3 Linecode=LC1 Length=0.13119 Units=m
New Line.LINE289 Bus1=283.1.2.3 Bus2=290.1.2.3 phases=3 Linecode=LC1 Length=0.74302 Units=m
New Line.LINE290 Bus1=284.1.2.3 Bus2=291.1.2.3 phases=3 Linecode=LC4 Length=0.043382 Units=m
New Line.LINE291 Bus1=286.1.2.3 Bus2=292.1.2.3 phases=3 Linecode=LC1 Length=5.9137 Units=m
New Line.LINE292 Bus1=287.1.2.3 Bus2=293.1.2.3 phases=3 Linecode=LC1 Length=0.14053 Units=m
New Line.LINE293 Bus1=288.1.2.3 Bus2=294.1.2.3 phases=3 Linecode=LC1 Length=0.31941 Units=m
New Line.LINE294 Bus1=289.1.2.3 Bus2=295.1.2.3 phases=3 Linecode=LC1 Length=5.6947 Units=m
New Line.LINE295 Bus1=290.1.2.3 Bus2=296.1.2.3 phases=3 Linecode=LC1 Length=6.1927 Units=m
New Line.LINE296 Bus1=291.1.2.3 Bus2=297.1.2.3 phases=3 Linecode=LC4 Length=0.043841 Units=m
New Line.LINE297 Bus1=293.1.2.3 Bus2=298.1.2.3 phases=3 Linecode=LC1 Length=0.1816 Units=m
New Line.LINE298 Bus1=294.1.2.3 Bus2=299.1.2.3 phases=3 Linecode=LC1 Length=0.75952 Units=m
New Line.LINE299 Bus1=297.1.2.3 Bus2=300.1.2.3 phases=3 Linecode=LC4 Length=0.15521 Units=m
New Line.LINE300 Bus1=297.1.2.3 Bus2=301.1.2.3 phases=3 Linecode=LC1 Length=0.077201 Units=m
New Line.LINE301 Bus1=298.1.2.3 Bus2=302.1.2.3 phases=3 Linecode=LC1 Length=0.30504 Units=m
New Line.LINE302 Bus1=299.1.2.3 Bus2=303.1.2.3 phases=3 Linecode=LC1 Length=4.3189 Units=m
New Line.LINE303 Bus1=300.1.2.3 Bus2=304.1.2.3 phases=3 Linecode=LC4 Length=0.84 Units=m
New Line.LINE304 Bus1=301.1.2.3 Bus2=305.1.2.3 phases=3 Linecode=LC1 Length=4.1121 Units=m
New Line.LINE305 Bus1=302.1.2.3 Bus2=306.1.2.3 phases=3 Linecode=LC1 Length=4.4536 Units=m
New Line.LINE306 Bus1=304.1.2.3 Bus2=307.1.2.3 phases=3 Linecode=LC4 Length=10.9453 Units=m
New Line.LINE307 Bus1=305.1.2.3 Bus2=308.1.2.3 phases=3 Linecode=LC1 Length=0.12292 Units=m
New Line.LINE308 Bus1=307.1.2.3 Bus2=309.1.2.3 phases=3 Linecode=LC4 Length=0.41908 Units=m
New Line.LINE309 Bus1=308.1.2.3 Bus2=310.1.2.3 phases=3 Linecode=LC1 Length=0.11792 Units=m
New Line.LINE310 Bus1=309.1.2.3 Bus2=311.1.2.3 phases=3 Linecode=LC4 Length=0.43136 Units=m
New Line.LINE311 Bus1=310.1.2.3 Bus2=312.1.2.3 phases=3 Linecode=LC1 Length=0.095859 Units=m
New Line.LINE312 Bus1=311.1.2.3 Bus2=313.1.2.3 phases=3 Linecode=LC4 Length=0.5007 Units=m
New Line.LINE313 Bus1=312.1.2.3 Bus2=314.1.2.3 phases=3 Linecode=LC1 Length=0.091005 Units=m
New Line.LINE314 Bus1=313.1.2.3 Bus2=315.1.2.3 phases=3 Linecode=LC1 Length=5.475 Units=m
New Line.LINE315 Bus1=313.1.2.3 Bus2=316.1.2.3 phases=3 Linecode=LC4 Length=0.49992 Units=m
New Line.LINE316 Bus1=314.1.2.3 Bus2=317.1.2.3 phases=3 Linecode=LC1 Length=0.4506 Units=m
New Line.LINE317 Bus1=315.1.2.3 Bus2=318.1.2.3 phases=3 Linecode=LC1 Length=0.11116 Units=m
New Line.LINE318 Bus1=316.1.2.3 Bus2=319.1.2.3 phases=3 Linecode=LC4 Length=0.70599 Units=m
New Line.LINE319 Bus1=317.1.2.3 Bus2=320.1.2.3 phases=3 Linecode=LC1 Length=6.2043 Units=m
New Line.LINE320 Bus1=318.1.2.3 Bus2=321.1.2.3 phases=3 Linecode=LC1 Length=0.11809 Units=m
New Line.LINE321 Bus1=319.1.2.3 Bus2=322.1.2.3 phases=3 Linecode=LC1 Length=5.5482 Units=m
New Line.LINE322 Bus1=319.1.2.3 Bus2=323.1.2.3 phases=3 Linecode=LC4 Length=2.7101 Units=m
New Line.LINE323 Bus1=321.1.2.3 Bus2=324.1.2.3 phases=3 Linecode=LC1 Length=0.16965 Units=m
New Line.LINE324 Bus1=322.1.2.3 Bus2=325.1.2.3 phases=3 Linecode=LC1 Length=0.061221 Units=m
New Line.LINE325 Bus1=323.1.2.3 Bus2=326.1.2.3 phases=3 Linecode=LC4 Length=6.9686 Units=m
New Line.LINE326 Bus1=324.1.2.3 Bus2=327.1.2.3 phases=3 Linecode=LC1 Length=0.13971 Units=m
New Line.LINE327 Bus1=325.1.2.3 Bus2=328.1.2.3 phases=3 Linecode=LC1 Length=0.10824 Units=m
New Line.LINE328 Bus1=326.1.2.3 Bus2=329.1.2.3 phases=3 Linecode=LC4 Length=0.7427 Units=m
New Line.LINE329 Bus1=327.1.2.3 Bus2=330.1.2.3 phases=3 Linecode=LC1 Length=0.1514 Units=m
New Line.LINE330 Bus1=328.1.2.3 Bus2=331.1.2.3 phases=3 Linecode=LC1 Length=0.10058 Units=m
New Line.LINE331 Bus1=329.1.2.3 Bus2=332.1.2.3 phases=3 Linecode=LC1 Length=3.125 Units=m
New Line.LINE332 Bus1=329.1.2.3 Bus2=333.1.2.3 phases=3 Linecode=LC4 Length=0.74345 Units=m
New Line.LINE333 Bus1=330.1.2.3 Bus2=334.1.2.3 phases=3 Linecode=LC1 Length=0.17103 Units=m
New Line.LINE334 Bus1=331.1.2.3 Bus2=335.1.2.3 phases=3 Linecode=LC1 Length=0.10502 Units=m
New Line.LINE335 Bus1=332.1.2.3 Bus2=336.1.2.3 phases=3 Linecode=LC1 Length=6.0574 Units=m
New Line.LINE336 Bus1=333.1.2.3 Bus2=337.1.2.3 phases=3 Linecode=LC4 Length=2.1294 Units=m
New Line.LINE337 Bus1=334.1.2.3 Bus2=338.1.2.3 phases=3 Linecode=LC1 Length=0.43664 Units=m
New Line.LINE338 Bus1=335.1.2.3 Bus2=339.1.2.3 phases=3 Linecode=LC1 Length=0.090471 Units=m
New Line.LINE339 Bus1=337.1.2.3 Bus2=340.1.2.3 phases=3 Linecode=LC4 Length=0.37603 Units=m
New Line.LINE340 Bus1=338.1.2.3 Bus2=341.1.2.3 phases=3 Linecode=LC1 Length=5.5886 Units=m
New Line.LINE341 Bus1=339.1.2.3 Bus2=342.1.2.3 phases=3 Linecode=LC1 Length=0.061855 Units=m
New Line.LINE342 Bus1=340.1.2.3 Bus2=343.1.2.3 phases=3 Linecode=LC4 Length=0.23129 Units=m
New Line.LINE343 Bus1=342.1.2.3 Bus2=344.1.2.3 phases=3 Linecode=LC1 Length=0.067357 Units=m
New Line.LINE344 Bus1=343.1.2.3 Bus2=345.1.2.3 phases=3 Linecode=LC4 Length=0.26722 Units=m
New Line.LINE345 Bus1=344.1.2.3 Bus2=346.1.2.3 phases=3 Linecode=LC1 Length=0.43988 Units=m
New Line.LINE346 Bus1=345.1.2.3 Bus2=347.1.2.3 phases=3 Linecode=LC4 Length=3.0196 Units=m
New Line.LINE347 Bus1=346.1.2.3 Bus2=348.1.2.3 phases=3 Linecode=LC1 Length=5.1336 Units=m
New Line.LINE348 Bus1=347.1.2.3 Bus2=349.1.2.3 phases=3 Linecode=LC1 Length=1.8872 Units=m
New Line.LINE349 Bus1=347.1.2.3 Bus2=350.1.2.3 phases=3 Linecode=LC4 Length=8.3957 Units=m
New Line.LINE350 Bus1=349.1.2.3 Bus2=351.1.2.3 phases=3 Linecode=LC1 Length=8.5689 Units=m
New Line.LINE351 Bus1=350.1.2.3 Bus2=352.1.2.3 phases=3 Linecode=LC1 Length=4.8805 Units=m
New Line.LINE352 Bus1=350.1.2.3 Bus2=353.1.2.3 phases=3 Linecode=LC4 Length=1.9419 Units=m
New Line.LINE353 Bus1=352.1.2.3 Bus2=354.1.2.3 phases=3 Linecode=LC1 Length=0.31085 Units=m
New Line.LINE354 Bus1=353.1.2.3 Bus2=355.1.2.3 phases=3 Linecode=LC1 Length=4.704 Units=m
New Line.LINE355 Bus1=353.1.2.3 Bus2=356.1.2.3 phases=3 Linecode=LC4 Length=4.0011 Units=m
New Line.LINE356 Bus1=354.1.2.3 Bus2=357.1.2.3 phases=3 Linecode=LC1 Length=0.21422 Units=m
New Line.LINE357 Bus1=355.1.2.3 Bus2=358.1.2.3 phases=3 Linecode=LC1 Length=0.25653 Units=m
New Line.LINE358 Bus1=356.1.2.3 Bus2=359.1.2.3 phases=3 Linecode=LC1 Length=0.75513 Units=m
New Line.LINE359 Bus1=356.1.2.3 Bus2=360.1.2.3 phases=3 Linecode=LC4 Length=1.3741 Units=m
New Line.LINE360 Bus1=357.1.2.3 Bus2=361.1.2.3 phases=3 Linecode=LC1 Length=0.1864 Units=m
New Line.LINE361 Bus1=358.1.2.3 Bus2=362.1.2.3 phases=3 Linecode=LC1 Length=0.19146 Units=m
New Line.LINE362 Bus1=359.1.2.3 Bus2=363.1.2.3 phases=3 Linecode=LC1 Length=0.17491 Units=m
New Line.LINE363 Bus1=361.1.2.3 Bus2=364.1.2.3 phases=3 Linecode=LC1 Length=0.25732 Units=m
New Line.LINE364 Bus1=362.1.2.3 Bus2=365.1.2.3 phases=3 Linecode=LC1 Length=0.25479 Units=m
New Line.LINE365 Bus1=363.1.2.3 Bus2=366.1.2.3 phases=3 Linecode=LC1 Length=0.27217 Units=m
New Line.LINE366 Bus1=364.1.2.3 Bus2=367.1.2.3 phases=3 Linecode=LC1 Length=5.7934 Units=m
New Line.LINE367 Bus1=365.1.2.3 Bus2=368.1.2.3 phases=3 Linecode=LC1 Length=5.7556 Units=m
New Line.LINE368 Bus1=366.1.2.3 Bus2=369.1.2.3 phases=3 Linecode=LC1 Length=3.0283 Units=m
New Line.LINE369 Bus1=369.1.2.3 Bus2=370.1.2.3 phases=3 Linecode=LC1 Length=0.16636 Units=m
New Line.LINE370 Bus1=370.1.2.3 Bus2=371.1.2.3 phases=3 Linecode=LC1 Length=0.20894 Units=m
New Line.LINE371 Bus1=371.1.2.3 Bus2=372.1.2.3 phases=3 Linecode=LC1 Length=0.14141 Units=m
New Line.LINE372 Bus1=372.1.2.3 Bus2=373.1.2.3 phases=3 Linecode=LC1 Length=0.53884 Units=m
New Line.LINE373 Bus1=373.1.2.3 Bus2=374.1.2.3 phases=3 Linecode=LC1 Length=8.2045 Units=m
! ------------------------------------------------------------------------------------------